Version 4
SHEET 1 880 680
WIRE 240 96 80 96
WIRE 416 96 320 96
WIRE 576 96 416 96
WIRE 576 128 576 96
WIRE 80 144 80 96
WIRE 416 144 416 96
WIRE 80 288 80 224
WIRE 416 288 416 208
WIRE 416 288 80 288
WIRE 576 288 576 208
WIRE 576 288 416 288
FLAG 416 288 0
FLAG 416 96 A
SYMBOL voltage 80 128 R0
WINDOW 123 24 124 Left 2
WINDOW 39 0 0 Left 0
SYMATTR InstName V1
SYMATTR Value ""
SYMATTR Value2 AC 1
SYMBOL res 336 80 R90
WINDOW 0 0 56 VBottom 2
WINDOW 3 32 56 VTop 2
SYMATTR InstName R1
SYMATTR Value 4,7k
SYMBOL cap 400 144 R0
SYMATTR InstName C1
SYMATTR Value 100n
SYMBOL ind 560 112 R0
SYMATTR InstName L1
SYMATTR Value 10m
SYMATTR SpiceLine Rser=40
TEXT 46 312 Left 2 !.ac dec 1000 1 1Meg
