Version 4
SHEET 1 880 680
WIRE 96 80 -48 80
WIRE 288 80 160 80
WIRE 448 80 288 80
WIRE 480 80 448 80
WIRE -48 144 -48 80
WIRE 288 144 288 80
WIRE 448 144 448 80
WIRE -48 288 -48 224
WIRE 288 288 288 208
WIRE 288 288 -48 288
WIRE 448 288 448 224
WIRE 448 288 288 288
WIRE 288 304 288 288
FLAG 480 80 Vout
FLAG -48 80 Vin
FLAG 288 304 0
SYMBOL voltage -48 128 R0
WINDOW 123 0 0 Left 0
WINDOW 39 0 0 Left 0
SYMATTR InstName V1
SYMATTR Value SINE(0 5 5k)
SYMBOL diode 96 96 R270
WINDOW 0 32 32 VTop 2
WINDOW 3 0 32 VBottom 2
SYMATTR InstName D3
SYMBOL cap 272 144 R0
SYMATTR InstName C1
SYMATTR Value 100n
SYMBOL res 432 128 R0
SYMATTR InstName Rload
SYMATTR Value {R}
TEXT -80 392 Left 2 !.step param R list 0.1k 0.22k 0.47k 1k 2.2k 4.7k 10k 22k
TEXT -80 352 Left 2 !.tran 0 1.5m 1m 1u
