Version 4
SHEET 1 880 680
WIRE 272 16 224 16
WIRE 400 16 352 16
WIRE 432 16 400 16
WIRE 576 16 512 16
WIRE 224 32 224 16
WIRE 112 96 112 32
WIRE 400 160 400 16
WIRE 432 160 400 160
WIRE 576 176 576 16
WIRE 576 176 496 176
WIRE 608 176 576 176
WIRE 432 192 288 192
WIRE 112 224 112 176
WIRE 112 224 48 224
WIRE 288 224 288 192
WIRE 48 240 48 224
WIRE 288 240 288 224
WIRE 112 256 112 224
WIRE 112 400 112 336
WIRE 288 400 288 320
FLAG 48 240 0
FLAG 288 400 0
FLAG 224 32 0
FLAG 112 32 Vcc
FLAG 112 400 Vee
FLAG 464 144 Vcc
FLAG 464 208 Vee
FLAG 608 176 Vout
FLAG 288 224 Vin
SYMBOL voltage 112 80 R0
WINDOW 123 0 0 Left 0
WINDOW 39 0 0 Left 0
SYMATTR InstName V1
SYMATTR Value 12
SYMBOL voltage 112 240 R0
WINDOW 123 0 0 Left 0
WINDOW 39 0 0 Left 0
SYMATTR InstName V2
SYMATTR Value 12
SYMBOL voltage 288 224 R0
WINDOW 3 24 152 Left 2
WINDOW 123 24 44 Left 2
WINDOW 39 0 0 Left 0
SYMATTR Value ""
SYMATTR Value2 AC 1
SYMATTR InstName Vin
SYMBOL res 368 0 R90
WINDOW 0 0 56 VBottom 2
WINDOW 3 32 56 VTop 2
SYMATTR InstName R1
SYMATTR Value 1k
SYMBOL res 528 0 R90
WINDOW 0 0 56 VBottom 2
WINDOW 3 32 56 VTop 2
SYMATTR InstName R2
SYMATTR Value 1k
SYMBOL OpAmps\\UniversalOpamp2 464 176 R0
SYMATTR InstName U1
TEXT 32 488 Left 2 !.ac dec 101 10 100000
